LTspice 24.0.12 for Windows
Circuit: * C:\Users\tkowshikrao\Downloads\resonantcllc.asc
Start Time: Wed Nov  5 15:58:17 2025
solver = Normal
Maximum thread count: 16
tnom = 27
temp = 27
method = modified trap
Limiting rise time of source v3 to 5e-07
Limiting fall time of source v3 to 5e-07
Limiting rise time of source v4 to 5e-07
Limiting fall time of source v4 to 5e-07
Limiting rise time of source v5 to 5e-07
Limiting fall time of source v5 to 5e-07
Limiting rise time of source v6 to 5e-07
Limiting fall time of source v6 to 5e-07
.OP point found by inspection.
Changing Tseed to 1e-08
Changing Tseed to 1e-10
Changing Tseed to 1e-07
Changing Tseed to 1e-11
Changing Tseed to 1e-06
Changing Tseed to 1e-12
Changing Tseed to 1e-05
Heightened Def Con from 0.0819569 to 0.0819569
Total elapsed time: 28.539 seconds.

